/*--------------------------------*- C++ -*----------------------------------*\
| =========                 |                                                 |
| \\      /  F ield         | OpenFOAM: The Open Source CFD Toolbox           |
|  \\    /   O peration     | Version:  v2006                                 |
|   \\  /    A nd           | Website:  www.openfoam.com                      |
|    \\/     M anipulation  |                                                 |
\*---------------------------------------------------------------------------*/
FoamFile
{
    version     2.0;
    format      ascii;
    class       dictionary;
    object      blockMeshDict;
}
// * * * * * * * * * * * * * * * * * * * * * * * * * * * * * * * * * * * * * //

scale   0.1;

vertices
(
    (0 0 0)    //point 0
    (1 0 0)    //point 1
    (1 1 0)    //point 2
    (0 1 0)    //point 3
    (0 0 0.1)  //point 4
    (1 0 0.1)  //point 5
    (1 1 0.1)  //point 6
    (0 1 0.1)  //point 7

// here are our new vertices

    (6 0 0)    //point 8
    (6 1 0)    //point 9
    (6 0 0.1)  //point 10
    (6 1 0.1)  //point 11


);

blocks
(
    hex (0 1 2 3 4 5 6 7) (20 40 1) simpleGrading (0.2 20 1) // first block
    hex (1 8 9 2 5 10 11 6) (100 40 1) simpleGrading (6 20 1) // second block
);

edges
(
);

boundary
(
    zeroGradientPlanes
    {
        type patch;
        faces
        (
            (1 5 4 0) // this is the bottom left side with x=0 and x=1
            (8 9 11 10) // this is the botttom right side x=1 and x=2
            (3 7 6 2) // this is the top left side
            (2 6 11 9) // this is the top right side x=1 and x=2
        );
    }

    inlet
    {
        type patch;
        faces
        (
            (0 4 7 3) // this is the x=0
        );
    }

    plate
    {
        type wall;
        faces
        (
            (1 8 10 5) // this is the wall  where y=0, x=1 and x=2
        );
    }  
    frontAndBack
    {
        type empty; // for 2-D cases
        faces
        (
            (0 3 2 1) // z coordinate =0 (low z plane), x=0 or 1
            (4 5 6 7) // z coordinate =0.1 (large z plane), x=0 or 1
            (1 2 9 8) // z coordineta =0 (low z plane), x=0 or 1
            (5 10 11 6) // z coordinate =0.1 (high z plane), x=1 or 2 
        );
    }
);

mergePatchPairs
(
);

// ************************************************************************* //
